2
R0100 2 0 1E+3
N0200 1 2 -1000 -1e-6 0 0 0.6 1e-3 2 20
V0300 1 0 SIN 2 4 1e3 0 0 0 40
.TRAN 5E-3 1E-5 ADMO4 1 UIC