1
R0100 1 0 1.24172802492745E+3
L0100 1 0 1.0129107349612E+1
C0100 1 0 1 IC=1
.TRAN 100 1 ADMO3 1 UIC