2
R0100 1 2 1
L0100 2 0 1e-3
V0200 1 0 SIN 2 4 1e3 0 0 0 40
.TRAN 5E-3 1E-5 ADMO4 1 UIC
