2
R0101 1 2 1e3
R0102 2 0 1e3
V0200 1 0 PULSE 2 10 1e-3 2e-3 3e-3 5e-3 15e-3 2
.TRAN 35E-3 1E-5 ADMO4 1 UIC
