2
R0101 1 2 1e3
R0102 2 0 1e3
V0200 1 0 DC 10
.TRAN 4E-2 1E-2 ADMO4 1 UIC
