3
L0100 1 0 1.0497E-4
L0102 1 2 -4.96999999999999E-6
L0301 3 1 9.89503E-3
C0200 2 0 10E-9 IC=10000
C0300 3 0 100E-12
.TRAN 1E-4 1E-7 ADMO2 1 UIC
